/*--------------------------------*- C++ -*----------------------------------*\
| =========                 |                                                 |
| \\      /  F ield         | OpenFOAM: The Open Source CFD Toolbox           |
|  \\    /   O peration     | Version:  v1806                                 |
|   \\  /    A nd           | Web:      www.OpenFOAM.com                      |
|    \\/     M anipulation  |                                                 |
\*---------------------------------------------------------------------------*/
FoamFile
{
    version     2.0;
    format      ascii;
    class       dictionary;
    object      blockMeshDict;
}
// * * * * * * * * * * * * * * * * * * * * * * * * * * * * * * * * * * * * * //

scale   1.0;

x0 -0.000250000000000001;
x1 0.018970000000000008;
y0 -0.000250000000000002;
y1 0.009970000000000005;
z0 -0.00025;
z1 0.00099;

vertices
(
    ($x0 $y0 $z0)
    ($x1 $y0 $z0)
    ($x1 $y1 $z0)
    ($x0 $y1 $z0)

    ($x0 $y0 $z1)
    ($x1 $y0 $z1)
    ($x1 $y1 $z1)
    ($x0 $y1 $z1)
);

blocks
(
    hex (0 1 2 3 4 5 6 7) (100 75 15) simpleGrading (1 1 1)
);

edges
(
);

boundary
(
    INLET
    {
        type patch;
        faces
        (
            (0 3 4 7)
        );
    }
    OUTLET
    {
        type patch;
        faces
        (
            (1 2 5 6)
        );
    }
    MEMBRANE    
    {
        type patch;
        faces
        (
            (0 1 2 3)
        );
    }
    SYM
    {
        type symmetry;
        faces
        (
            (0 1 4 5)
            (2 3 6 7)
            (4 5 6 7)
        );
    }
);

// ************************************************************************* //
