/*--------------------------------*- C++ -*----------------------------------*\
| =========                 |                                                 |
| \\      /  F ield         | OpenFOAM: The Open Source CFD Toolbox           |
|  \\    /   O peration     | Version:  5.x                                   |
|   \\  /    A nd           | Web:      www.OpenFOAM.org                      |
|    \\/     M anipulation  |                                                 |
\*---------------------------------------------------------------------------*/
FoamFile
{
    version     2.0;
    format      ascii;
    class       polyBoundaryMesh;
    location    "constant/polyMesh";
    object      boundary;
}
// * * * * * * * * * * * * * * * * * * * * * * * * * * * * * * * * * * * * * //

4
(
    INLET
    {
        type            patch;
        nFaces          1;
        startFace       0;
    }
    OUTLET
    {
        type            patch;
        nFaces          1;
        startFace       1;
    }
    MEMBRANE
    {
        type            patch;
        nFaces          1;
        startFace       2;
    }
    SYM
    {
        type            symmetry;
        inGroups        1(symmetry);
        nFaces          3;
        startFace       3;
    }
)

// ************************************************************************* //
