/*--------------------------------*- C++ -*----------------------------------*\
| =========                 |                                                 |
| \\      /  F ield         | OpenFOAM: The Open Source CFD Toolbox           |
|  \\    /   O peration     | Version:  4.x                                   |
|   \\  /    A nd           | Web:      www.OpenFOAM.org                      |
|    \\/     M anipulation  |                                                 |
\*---------------------------------------------------------------------------*/
FoamFile
{
    version     2.0;
    format      ascii;
    class       dictionary;
    location    "constant";
    object      transportProperties;
}
// * * * * * * * * * * * * * * * * * * * * * * * * * * * * * * * * * * * * * //

transportModel  Newtonian;

nu              [0 2 -1 0 0 0 0] 1e-06;

D	D	[0 2 -1 0 0 0 0] 1.48e-9;

	
A			1.74;		// [LMH BAR]
B 			0.16;		// [LMH] 
S			3.07e-4;		// [m]
dP 			14.2;	 	// hydr pres diff [bar]
C_Vant   	837.3;   // Van't Hoff coeff [bar]
s_D 		0.035;	 	// draw side concentration []
Dif 		1.48e-9;	// [m2/s]
// ************************************************************************* //
